/*--------------------------------*- C++ -*----------------------------------*\
| =========                 |                                                 |
| \\      /  F ield         | OpenFOAM: The Open Source CFD Toolbox           |
|  \\    /   O peration     | Version:  v2212                                 |
|   \\  /    A nd           | Website:  www.openfoam.com                      |
|    \\/     M anipulation  |                                                 |
\*---------------------------------------------------------------------------*/
FoamFile
{
    version     2.0;
    format      ascii;
    class       dictionary;
    object      blockMeshDict;
}
// * * * * * * * * * * * * * * * * * * * * * * * * * * * * * * * * * * * * * //

scale   1;

vertices
(
    (-0.35 -0.3725 -0.24)
    ( 0.35 -0.3725 -0.24)
    ( 0.35  0.3725 -0.24)
    (-0.35  0.3725 -0.24)
    (-0.35 -0.3725 0.2)
    ( 0.35 -0.3725 0.2)
    ( 0.35  0.3725 0.2)
    (-0.35  0.3725 0.2)
);

blocks
(
    hex (0 1 2 3 4 5 6 7) (70 1 44) simpleGrading (1 1 1)
    //hex (0 1 2 3 4 5 6 7) (140 1 88) simpleGrading (1 1 1)
);

edges
(
);

boundary
(
    oversetPatch
    {
        type overset;
        faces
        (
            (0 3 2 1)
            (2 6 5 1)
            //(1 5 4 0)
            //(3 7 6 2)
            (0 4 7 3)
            (4 5 6 7)
        );
    }
    sidePatch1
    {
        type empty;
        faces
        (
            (1 5 4 0)
            (3 7 6 2)
        );
    }
    floatingObject
    {
        type wall;
        faces ();
    }
);

// ************************************************************************* //
