/*--------------------------------*- C++ -*----------------------------------*\
| =========                 |                                                 |
| \\      /  F ield         | OpenFOAM: The Open Source CFD Toolbox           |
|  \\    /   O peration     | Version:  v2212                                 |
|   \\  /    A nd           | Website:  www.openfoam.com                      |
|    \\/     M anipulation  |                                                 |
\*---------------------------------------------------------------------------*/
FoamFile
{
    version     2.0;
    format      ascii;
    class       volVectorField;
    object      U;
}
// * * * * * * * * * * * * * * * * * * * * * * * * * * * * * * * * * * * * * //

dimensions      [0 1 -1 0 0 0 0];

internalField   uniform (0 0 0);

boundaryField
{
    #includeEtc "caseDicts/setConstraintTypes"

    oversetPatch
    {
        patchType       overset;
        type            zeroGradient;
    }

    stationaryWalls
    {
        type            noSlip;
    }
	
    inlet
    {
        type            noSlip;
    }
	
    outlet
    {
        type            noSlip;
    }
	
    sidePatch
    {
        type            empty;
    }

    atmosphere
    {
        type            noSlip;
    }

    floatingObject
    {
        type            movingWallVelocity;
        value           uniform (0 0 0);
    }
}

// ************************************************************************* //
