/*--------------------------------*- C++ -*----------------------------------*\
  =========                 |
  \\      /  F ield         | OpenFOAM: The Open Source CFD Toolbox
   \\    /   O peration     | Website:  https://openfoam.org
    \\  /    A nd           | Version:  dev
     \\/     M anipulation  |
\*---------------------------------------------------------------------------*/
FoamFile
{
    version     2.0;
    format      ascii;
    class       dictionary;
    object      motionProperties;
}
// * * * * * * * * * * * * * * * * * * * * * * * * * * * * * * * * * * * * * //

dynamicFvMesh       dynamicMotionSolverFvMesh;

motionSolverLibs   ("librigidBodyMeshMotion.so");

motionSolver       rigidBodyMotion;

rigidBodyMotionCoeffs
{
    report          on;
    //reportToFile    on;

    solver
    {
        type Newmark;
    }

    accelerationRelaxation 0.7;

    bodies
    {
        floatingObject
        {
            type            cuboid;
            parent          root;

            // Cuboid dimensions
            Lx              0.3;
            Ly              0.4;
            Lz              0.2;

            // Density of the cuboid
            rho             500;

            // Cuboid mass
            mass            #calc "$rho*$Lx*$Ly*$Lz";
            L               ($Lx $Ly $Lz);
            centreOfMass    (1.5 0.2 0.45);
            transform       (1 0 0 0 1 0 0 0 1) (1.5 0.2 0.45);
            
            joint
            {
                type Pz;
            }
/*
            joint
            {
                type            composite;
                joints
                (
                    {
                        type Py;
                    }
                    {
                        type Ry;
                    }
                );
            }
*/
            patches         (floatingObject);
            innerDistance   0.05;
            outerDistance   0.35;
        }
    }
}


// ************************************************************************* //
