/*--------------------------------*- C++ -*----------------------------------*\
| =========                 |                                                 |
| \\      /  F ield         | OpenFOAM: The Open Source CFD Toolbox           |
|  \\    /   O peration     | Version:  2212                                  |
|   \\  /    A nd           | Website:  www.openfoam.com                      |
|    \\/     M anipulation  |                                                 |
\*---------------------------------------------------------------------------*/
FoamFile
{
    version	2.0;
    format	ascii;
    class	dictionary;
    object	waveProperties;
}
// * * * * * * * * * * * * * * * * * * * * * * * * * * * * * * * * * * * * * //

seaLevel            0;

relaxationNames     ( inlet outlet );

initializationName  outlet;

inletCoeffs
{
    waveType            stokesSecond;
    Tsoft               1.4;
    depth               0.6;
    period              1.4;
    direction           ( 1 0 0 );
    phi                 0;
    height              0.1;
    waveNumber          (2.32273 0 0);
    omega               4.48799;
    debug               false;

    relaxationZone
    {
        relaxationScheme    Spatial;
        relaxationShape     Rectangular;
        beachType           Empty;
        relaxType           INLET;
        startX              ( -6 -1 -1 );
        endX                ( -4 1 1 );
        orientation         ( 1 0 0 );
    }
}

outletCoeffs
{
    waveType            potentialCurrent;
    U                   ( 0 0 0 );
    Tsoft               2;

    relaxationZone
    {
        relaxationScheme    Spatial;
        relaxationShape     Rectangular;
        beachType           Empty;
        relaxType           OUTLET;
        startX              ( 4 -1 -1 );
        endX                ( 7 1 1 );
        orientation         ( 1 0 0 );
    }
}



// ************************************************************************* //
